/*--------------------------------*- C++ -*----------------------------------*\
  =========                 |
  \\      /  F ield         | OpenFOAM: The Open Source CFD Toolbox
   \\    /   O peration     | Website:  https://openfoam.com
    \\  /    A nd           | Version:  2512
     \\/     M anipulation  |
\*---------------------------------------------------------------------------*/
FoamFile
{
    version     2.0;
    format      ascii;
    class       dictionary;
    location    "system";
    object      blockMeshDict;
}
// * * * * * * * * * * * * * * * * * * * * * * * * * * * * * * * * * * * * * //

scale   1;

vertices
(
    ( 0 0 -1.0 )
    ( 6.0 0 -1.0 )
    ( 6.0 0.04 -1.0 )
    ( 0 0.04 -1.0 )
    ( 0 0 -0.03 )
    ( 6.0 0 -0.03 )
    ( 6.0 0.04 -0.03 )
    ( 0 0.04 -0.03 )
    ( 0 0 0.03 )
    ( 6.0 0 0.03 )
    ( 6.0 0.04 0.03 )
    ( 0 0.04 0.03 )
    ( 0 0 0.36 )
    ( 6.0 0 0.36 )
    ( 6.0 0.04 0.36 )
    ( 0 0.04 0.36 )
);

blocks
(
    hex (0 1 2 3 4 5 6 7) (300 1 24) simpleGrading (1 1 0.1)
    hex (4 5 6 7 8 9 10 11) (300 1 15) simpleGrading (1 1 1.0)
    hex (8 9 10 11 12 13 14 15) (300 1 12) simpleGrading (1 1 8)
);

boundary
(
    inlet
    {
        type patch;
        faces
        (
            (0 4 7 3)
            (4 8 11 7)
            (8 12 15 11)
        );
    }
    outlet
    {
        type patch;
        faces
        (
            (1 5 6 2)
            (5 9 10 6)
            (9 13 14 10)
        );
    }
    ground
    {
        type wall;
        faces
        (
            (0 1 2 3)
        );
    }
    top
    {
        type patch;
        faces
        (
            (12 13 14 15)
        );
    }
    sides
    {
        type empty;
        faces
        (
            (0 4 5 1)
            (4 8 9 5)
            (8 12 13 9)
            (3 7 6 2)
            (7 11 10 6)
            (11 15 14 10)
        );
    }
);
